Circuit: * C:\Users\mitch\projects\badge\hello_my_name_is\hello_my_name_is\sim\slide_sw.asc

Limiting rise time of source v3 to 0.005
Limiting fall time of source v3 to 0.005
WARNING: Less than two connections to node 5V.  This node is used by V2.
Instance "m:m1:2": Length shorter than recommended for a level 3 MOSFET.
Direct Newton iteration for .op point succeeded.

Date: Thu Apr 14 01:23:42 2022
Total elapsed time: 0.163 seconds.

tnom = 27
temp = 27
method = modified trap
totiter = 5014
traniter = 5008
tranpoints = 2148
accept = 1765
rejected = 383
matrix size = 12
fillins = 6
solver = Normal
Matrix Compiler1: 1.13 KB object code size  0.2/0.2/[0.1]
Matrix Compiler2: 1.01 KB object code size  0.1/0.2/[0.1]

