Circuit: * C:\Users\mitch\projects\badge\hello_my_name_is\hello_my_name_is\sim\badge.asc

Limiting rise time of source v3 to 0.005
Limiting fall time of source v3 to 0.005
WARNING: Less than two connections to node 5V.  This node is used by V2.
Instance "m:m1:2": Length shorter than recommended for a level 3 MOSFET.
Direct Newton iteration for .op point succeeded.

Date: Tue Apr 12 22:57:56 2022
Total elapsed time: 0.084 seconds.

tnom = 27
temp = 27
method = modified trap
totiter = 6809
traniter = 6803
tranpoints = 2902
accept = 2288
rejected = 614
matrix size = 12
fillins = 6
solver = Normal
Matrix Compiler1: 1.04 KB object code size  0.2/0.1/[0.1]
Matrix Compiler2: off  [0.1]/0.1/0.1

